<?xml version="1.0" encoding="utf-8"?>
<routes>
<users>
</users>
</routes>
